Version 4
SHEET 1 1312 680
WIRE -400 112 -400 96
WIRE -320 112 -320 96
WIRE -240 112 -240 96
WIRE -160 112 -160 96
WIRE 352 112 352 0
WIRE 352 112 272 112
WIRE 432 112 352 112
WIRE 0 128 -16 128
WIRE 32 128 0 128
WIRE 176 128 112 128
WIRE 592 128 528 128
WIRE 704 128 672 128
WIRE 720 128 704 128
WIRE 304 144 272 144
WIRE 432 144 400 144
WIRE -400 160 -400 112
WIRE -320 160 -320 112
WIRE -240 160 -240 112
WIRE -160 160 -160 112
WIRE 848 160 816 160
WIRE 896 160 848 160
WIRE 1024 160 976 160
WIRE 1168 160 1024 160
WIRE 1168 176 1168 160
WIRE 1024 192 1024 160
WIRE 272 224 256 224
WIRE 304 224 304 144
WIRE 304 224 272 224
WIRE 400 224 400 144
WIRE 432 224 400 224
WIRE 448 224 432 224
WIRE 848 256 816 256
WIRE 1024 256 848 256
WIRE 1168 256 1024 256
WIRE -400 288 -400 240
WIRE -320 288 -320 240
WIRE 304 288 304 224
WIRE 304 288 272 288
WIRE 400 288 400 224
WIRE 432 288 400 288
WIRE 0 304 -16 304
WIRE 16 304 0 304
WIRE 176 304 96 304
WIRE 592 304 528 304
WIRE 704 304 672 304
WIRE 720 304 704 304
WIRE -400 320 -400 288
WIRE -320 320 -320 288
WIRE 352 320 272 320
WIRE 432 320 352 320
WIRE 352 352 352 320
WIRE -400 416 -400 400
WIRE -320 416 -320 400
WIRE -240 416 -240 240
WIRE -160 416 -160 240
WIRE -400 528 -400 496
WIRE -320 528 -320 496
WIRE -240 544 -240 496
WIRE -160 544 -160 496
FLAG -320 528 0
FLAG -400 528 0
FLAG -400 400 VDC
FLAG -320 400 -5V
FLAG 352 0 VDC
FLAG 352 352 0
FLAG 272 224 LO
FLAG 432 224 RO
FLAG -240 544 LO
FLAG -160 544 RO
FLAG -400 288 -5V
FLAG -320 288 -5V
FLAG -400 112 C
FLAG -320 112 D
FLAG -240 112 A
FLAG -160 112 B
FLAG 0 128 A
FLAG 704 128 B
FLAG 0 304 C
FLAG 704 304 D
FLAG 848 160 LO
FLAG 848 256 RO
SYMBOL AutoGenerated\\DMHT6016LFJ 224 304 R0
WINDOW 3 0 40 Invisible 2
SYMATTR InstName U2
SYMBOL AutoGenerated\\DMHT6016LFJ 224 128 R0
WINDOW 3 0 40 Invisible 2
SYMATTR InstName U1
SYMBOL AutoGenerated\\DMHT6016LFJ 480 128 M0
WINDOW 3 0 40 Invisible 2
SYMATTR InstName U3
SYMBOL AutoGenerated\\DMHT6016LFJ 480 304 M0
WINDOW 3 0 40 Invisible 2
SYMATTR InstName U4
SYMBOL res 128 112 R90
WINDOW 0 0 56 VBottom 2
WINDOW 3 32 56 VTop 2
SYMATTR InstName R1
SYMATTR Value 3
SYMBOL res 112 288 R90
WINDOW 0 0 56 VBottom 2
WINDOW 3 32 56 VTop 2
SYMATTR InstName R2
SYMATTR Value 3
SYMBOL res 688 112 R90
WINDOW 0 0 56 VBottom 2
WINDOW 3 32 56 VTop 2
SYMATTR InstName R3
SYMATTR Value 3
SYMBOL res 688 288 R90
WINDOW 0 0 56 VBottom 2
WINDOW 3 32 56 VTop 2
SYMATTR InstName R4
SYMATTR Value 3
SYMBOL voltage -400 144 R0
WINDOW 3 13 -165 VRight 2
WINDOW 123 0 0 Left 0
WINDOW 39 0 0 Left 0
SYMATTR InstName V1
SYMATTR Value PWL file=B.txt
SYMBOL voltage -320 144 R0
WINDOW 3 13 -163 VRight 2
WINDOW 123 0 0 Left 0
WINDOW 39 0 0 Left 0
SYMATTR InstName V2
SYMATTR Value PWL file=A.txt
SYMBOL voltage -240 144 R0
WINDOW 3 12 -163 VRight 2
WINDOW 123 0 0 Left 0
WINDOW 39 0 0 Left 0
SYMATTR InstName V3
SYMATTR Value PWL file=A.txt
SYMBOL voltage -160 144 R0
WINDOW 3 14 -160 VRight 2
WINDOW 123 0 0 Left 0
WINDOW 39 0 0 Left 0
SYMATTR InstName V4
SYMATTR Value PWL file=B.txt
SYMBOL voltage -400 400 R0
WINDOW 123 0 0 Left 0
WINDOW 39 0 0 Left 0
SYMATTR InstName V5
SYMATTR Value 40
SYMBOL voltage -320 400 R0
WINDOW 123 0 0 Left 0
WINDOW 39 0 0 Left 0
SYMATTR InstName V6
SYMATTR Value -5
SYMBOL voltage -240 400 R0
WINDOW 123 0 0 Left 0
WINDOW 39 0 0 Left 0
SYMATTR InstName V7
SYMATTR Value -5
SYMBOL voltage -160 400 R0
WINDOW 123 0 0 Left 0
WINDOW 39 0 0 Left 0
SYMATTR InstName V8
SYMATTR Value -5
SYMBOL ind 992 144 R90
WINDOW 0 5 56 VBottom 2
WINDOW 3 32 56 VTop 2
SYMATTR InstName L2
SYMATTR Value 0.57µ
SYMBOL cap 1008 192 R0
SYMATTR InstName C1
SYMATTR Value 700p
SYMBOL ind 1184 272 R180
WINDOW 0 36 80 Left 2
WINDOW 3 36 40 Left 2
SYMATTR InstName L3
SYMATTR Value 1µ
SYMATTR SpiceLine Rser=3
TEXT 200 400 Left 2 !.include DMHT6016LFJ.spice
TEXT 204 434 Left 2 !.tran 0 10e-6 0
